Circuit: * C:\Users\Loris\Desktop\Summer School\SummerSchool\Document\Schema\NMOS.asc

Direct Newton iteration for .op point succeeded.

Date: Mon Aug 23 14:54:59 2021
Total elapsed time: 0.112 seconds.

tnom = 27
temp = 27
method = modified trap
totiter = 2089
traniter = 2082
tranpoints = 1042
accept = 1042
rejected = 0
matrix size = 10
fillins = 0
solver = Normal
Matrix Compiler1: 426 bytes object code size  0.3/0.2/[0.2]
Matrix Compiler2: 706 bytes object code size  0.2/0.3/[0.2]

